@<TRIPOS>MOLECULE
generated by VMD
    2    1    1    0    0
SMALL
USER_CHARGES
****
Energy = 0

@<TRIPOS>ATOM
      1  _ON       0.0750    0.0000    0.0000   OT    1  DIOX        -0.021000
      2  _OP      -1.0750   -0.0000   -0.0000   OT    1  DIOX        0.021000
@<TRIPOS>BOND
    1     1     2  2

@<TRIPOS>SUBSTRUCTURE
1 ****        1 TEMP                        0 ****  **** 0 ROOT
